../molecules/C78.sdf
 OpenBabel04091613483D

 78117  0  0  0  0  0  0  0  0999 V2000
    2.3507    1.1850   -2.9905 C   0  0  0  0  0  0  0  0  0  0  0  0
    1.2232    0.7336   -3.7130 C   0  0  0  0  0  0  0  0  0  0  0  0
    2.5598    3.2240    0.1314 C   0  0  0  0  0  0  0  0  0  0  0  0
    3.0215    2.3810   -0.9073 C   0  0  0  0  0  0  0  0  0  0  0  0
    2.3172    2.3804   -2.1988 C   0  0  0  0  0  0  0  0  0  0  0  0
    1.1706    3.1981   -2.3384 C   0  0  0  0  0  0  0  0  0  0  0  0
   -0.7004    4.2148    1.1783 C   0  0  0  0  0  0  0  0  0  0  0  0
    0.7004    4.2148    1.1783 C   0  0  0  0  0  0  0  0  0  0  0  0
    1.4194    4.1083   -0.0659 C   0  0  0  0  0  0  0  0  0  0  0  0
    0.7238    4.0621   -1.2659 C   0  0  0  0  0  0  0  0  0  0  0  0
   -3.0215    2.3810   -0.9073 C   0  0  0  0  0  0  0  0  0  0  0  0
   -2.5598    3.2240    0.1314 C   0  0  0  0  0  0  0  0  0  0  0  0
   -1.4194    4.1083   -0.0659 C   0  0  0  0  0  0  0  0  0  0  0  0
   -0.7238    4.0621   -1.2659 C   0  0  0  0  0  0  0  0  0  0  0  0
   -2.3172    2.3804   -2.1988 C   0  0  0  0  0  0  0  0  0  0  0  0
   -1.1706    3.1981   -2.3384 C   0  0  0  0  0  0  0  0  0  0  0  0
    0.0000    2.7197   -3.0300 C   0  0  0  0  0  0  0  0  0  0  0  0
    0.0000    1.4619   -3.6942 C   0  0  0  0  0  0  0  0  0  0  0  0
   -1.2232    0.7336   -3.7130 C   0  0  0  0  0  0  0  0  0  0  0  0
   -2.3507    1.1850   -2.9905 C   0  0  0  0  0  0  0  0  0  0  0  0
   -0.7265    2.7163    3.1256 C   0  0  0  0  0  0  0  0  0  0  0  0
   -1.4144    3.4165    2.1507 C   0  0  0  0  0  0  0  0  0  0  0  0
    1.4144    3.4165    2.1507 C   0  0  0  0  0  0  0  0  0  0  0  0
    0.7265    2.7163    3.1256 C   0  0  0  0  0  0  0  0  0  0  0  0
   -2.5390    2.7811    1.4988 C   0  0  0  0  0  0  0  0  0  0  0  0
   -2.9598    1.4678    1.8686 C   0  0  0  0  0  0  0  0  0  0  0  0
   -2.2529    0.7362    2.9257 C   0  0  0  0  0  0  0  0  0  0  0  0
   -1.1757    1.4079    3.5501 C   0  0  0  0  0  0  0  0  0  0  0  0
   -3.6715    1.1833   -0.4876 C   0  0  0  0  0  0  0  0  0  0  0  0
   -3.6153    0.7308    0.8550 C   0  0  0  0  0  0  0  0  0  0  0  0
    2.5390    2.7811    1.4988 C   0  0  0  0  0  0  0  0  0  0  0  0
    2.9598    1.4678    1.8686 C   0  0  0  0  0  0  0  0  0  0  0  0
    3.6153    0.7308    0.8550 C   0  0  0  0  0  0  0  0  0  0  0  0
    3.6715    1.1833   -0.4876 C   0  0  0  0  0  0  0  0  0  0  0  0
    1.1757    1.4079    3.5501 C   0  0  0  0  0  0  0  0  0  0  0  0
    2.2529    0.7362    2.9257 C   0  0  0  0  0  0  0  0  0  0  0  0
   -1.1757   -1.4079    3.5501 C   0  0  0  0  0  0  0  0  0  0  0  0
   -2.2529   -0.7362    2.9257 C   0  0  0  0  0  0  0  0  0  0  0  0
    1.4144   -3.4165    2.1507 C   0  0  0  0  0  0  0  0  0  0  0  0
    0.7265   -2.7163    3.1256 C   0  0  0  0  0  0  0  0  0  0  0  0
   -0.7265   -2.7163    3.1256 C   0  0  0  0  0  0  0  0  0  0  0  0
   -1.4144   -3.4165    2.1507 C   0  0  0  0  0  0  0  0  0  0  0  0
    0.7238   -4.0621   -1.2659 C   0  0  0  0  0  0  0  0  0  0  0  0
    1.4194   -4.1083   -0.0659 C   0  0  0  0  0  0  0  0  0  0  0  0
    0.7004   -4.2148    1.1783 C   0  0  0  0  0  0  0  0  0  0  0  0
   -0.7004   -4.2148    1.1783 C   0  0  0  0  0  0  0  0  0  0  0  0
   -2.3172   -2.3804   -2.1988 C   0  0  0  0  0  0  0  0  0  0  0  0
   -1.1706   -3.1981   -2.3384 C   0  0  0  0  0  0  0  0  0  0  0  0
   -0.7238   -4.0621   -1.2659 C   0  0  0  0  0  0  0  0  0  0  0  0
   -1.4194   -4.1083   -0.0659 C   0  0  0  0  0  0  0  0  0  0  0  0
   -3.0215   -2.3810   -0.9073 C   0  0  0  0  0  0  0  0  0  0  0  0
   -2.5598   -3.2240    0.1314 C   0  0  0  0  0  0  0  0  0  0  0  0
   -2.5390   -2.7811    1.4988 C   0  0  0  0  0  0  0  0  0  0  0  0
   -2.9598   -1.4678    1.8686 C   0  0  0  0  0  0  0  0  0  0  0  0
   -3.6153   -0.7308    0.8550 C   0  0  0  0  0  0  0  0  0  0  0  0
   -3.6715   -1.1833   -0.4876 C   0  0  0  0  0  0  0  0  0  0  0  0
    2.3172   -2.3804   -2.1988 C   0  0  0  0  0  0  0  0  0  0  0  0
    1.1706   -3.1981   -2.3384 C   0  0  0  0  0  0  0  0  0  0  0  0
    2.5598   -3.2240    0.1314 C   0  0  0  0  0  0  0  0  0  0  0  0
    3.0215   -2.3810   -0.9073 C   0  0  0  0  0  0  0  0  0  0  0  0
    0.0000   -2.7197   -3.0300 C   0  0  0  0  0  0  0  0  0  0  0  0
    0.0000   -1.4619   -3.6942 C   0  0  0  0  0  0  0  0  0  0  0  0
    1.2232   -0.7336   -3.7130 C   0  0  0  0  0  0  0  0  0  0  0  0
    2.3507   -1.1850   -2.9905 C   0  0  0  0  0  0  0  0  0  0  0  0
   -2.3507   -1.1850   -2.9905 C   0  0  0  0  0  0  0  0  0  0  0  0
   -1.2232   -0.7336   -3.7130 C   0  0  0  0  0  0  0  0  0  0  0  0
    2.5390   -2.7811    1.4988 C   0  0  0  0  0  0  0  0  0  0  0  0
    2.9598   -1.4678    1.8686 C   0  0  0  0  0  0  0  0  0  0  0  0
    2.2529   -0.7362    2.9257 C   0  0  0  0  0  0  0  0  0  0  0  0
    1.1757   -1.4079    3.5501 C   0  0  0  0  0  0  0  0  0  0  0  0
    3.6715   -1.1833   -0.4876 C   0  0  0  0  0  0  0  0  0  0  0  0
    3.6153   -0.7308    0.8550 C   0  0  0  0  0  0  0  0  0  0  0  0
    3.6903    0.0000   -1.3238 C   0  0  0  0  0  0  0  0  0  0  0  0
    3.0577    0.0000   -2.5408 C   0  0  0  0  0  0  0  0  0  0  0  0
   -3.0577    0.0000   -2.5408 C   0  0  0  0  0  0  0  0  0  0  0  0
   -3.6903    0.0000   -1.3238 C   0  0  0  0  0  0  0  0  0  0  0  0
    0.0000   -0.6863    3.9554 C   0  0  0  0  0  0  0  0  0  0  0  0
    0.0000    0.6863    3.9554 C   0  0  0  0  0  0  0  0  0  0  0  0
  2 63  1  0  0  0  0
  2 18  1  0  0  0  0
  2  1  2  0  0  0  0
 66 19  1  0  0  0  0
 66 62  1  0  0  0  0
 66 65  2  0  0  0  0
 63 62  1  0  0  0  0
 63 64  2  0  0  0  0
 19 18  1  0  0  0  0
 19 20  2  0  0  0  0
 62 61  2  0  0  0  0
 18 17  2  0  0  0  0
 61 48  1  0  0  0  0
 61 58  1  0  0  0  0
 17 16  1  0  0  0  0
 17  6  1  0  0  0  0
 65 75  1  0  0  0  0
 65 47  1  0  0  0  0
  1 74  1  0  0  0  0
  1  5  1  0  0  0  0
 64 74  1  0  0  0  0
 64 57  1  0  0  0  0
 20 75  1  0  0  0  0
 20 15  1  0  0  0  0
 75 76  2  0  0  0  0
 74 73  2  0  0  0  0
 16 15  2  0  0  0  0
 16 14  1  0  0  0  0
 48 47  2  0  0  0  0
 48 49  1  0  0  0  0
 58 57  2  0  0  0  0
 58 43  1  0  0  0  0
  6  5  2  0  0  0  0
  6 10  1  0  0  0  0
 15 11  1  0  0  0  0
 47 51  1  0  0  0  0
 57 60  1  0  0  0  0
  5  4  1  0  0  0  0
 73 71  1  0  0  0  0
 73 34  1  0  0  0  0
 76 56  1  0  0  0  0
 76 29  1  0  0  0  0
 10 14  1  0  0  0  0
 10  9  2  0  0  0  0
 14 13  2  0  0  0  0
 43 49  1  0  0  0  0
 43 44  2  0  0  0  0
 49 50  2  0  0  0  0
 51 56  1  0  0  0  0
 51 52  2  0  0  0  0
  4 34  1  0  0  0  0
  4  3  2  0  0  0  0
 11 29  1  0  0  0  0
 11 12  2  0  0  0  0
 60 71  1  0  0  0  0
 60 59  2  0  0  0  0
 56 55  2  0  0  0  0
 29 30  2  0  0  0  0
 71 72  2  0  0  0  0
 34 33  2  0  0  0  0
 13 12  1  0  0  0  0
 13  7  1  0  0  0  0
  9  3  1  0  0  0  0
  9  8  1  0  0  0  0
 44 59  1  0  0  0  0
 44 45  1  0  0  0  0
 50 52  1  0  0  0  0
 50 46  1  0  0  0  0
 59 67  1  0  0  0  0
 52 53  1  0  0  0  0
 12 25  1  0  0  0  0
  3 31  1  0  0  0  0
 55 30  1  0  0  0  0
 55 54  1  0  0  0  0
 72 33  1  0  0  0  0
 72 68  1  0  0  0  0
 33 32  1  0  0  0  0
 30 26  1  0  0  0  0
 46 45  2  0  0  0  0
 46 42  1  0  0  0  0
 45 39  1  0  0  0  0
  8  7  2  0  0  0  0
  8 23  1  0  0  0  0
  7 22  1  0  0  0  0
 67 68  2  0  0  0  0
 67 39  1  0  0  0  0
 25 26  2  0  0  0  0
 25 22  1  0  0  0  0
 53 54  2  0  0  0  0
 53 42  1  0  0  0  0
 31 32  2  0  0  0  0
 31 23  1  0  0  0  0
 54 38  1  0  0  0  0
 32 36  1  0  0  0  0
 26 27  1  0  0  0  0
 68 69  1  0  0  0  0
 42 41  2  0  0  0  0
 39 40  2  0  0  0  0
 22 21  2  0  0  0  0
 23 24  2  0  0  0  0
 38 27  1  0  0  0  0
 38 37  2  0  0  0  0
 36 69  1  0  0  0  0
 36 35  2  0  0  0  0
 27 28  2  0  0  0  0
 69 70  2  0  0  0  0
 40 41  1  0  0  0  0
 40 70  1  0  0  0  0
 41 37  1  0  0  0  0
 24 21  1  0  0  0  0
 24 35  1  0  0  0  0
 21 28  1  0  0  0  0
 70 77  1  0  0  0  0
 37 77  1  0  0  0  0
 35 78  1  0  0  0  0
 28 78  1  0  0  0  0
 77 78  2  0  0  0  0
M  END
$$$$
