../molecules/test1.sdf
 OpenBabel04091613483D

 18 19  0  0  0  0  0  0  0  0999 V2000
   -6.9080    2.2619    0.0000 C   0  0  0  0  0  0  0  0  0  0  0  0
   -5.6405    2.8466    0.0000 C   0  0  0  0  0  0  0  0  0  0  0  0
   -4.4830    2.0512    0.0000 C   0  0  0  0  0  0  0  0  0  0  0  0
   -4.6118    0.6430    0.0000 C   0  0  0  0  0  0  0  0  0  0  0  0
   -5.8944    0.0709    0.0000 C   0  0  0  0  0  0  0  0  0  0  0  0
   -7.0348    0.8759    0.0000 C   0  0  0  0  0  0  0  0  0  0  0  0
   -3.2004    2.6233    0.0000 C   0  0  0  0  0  0  0  0  0  0  0  0
   -2.0600    1.8183    0.0000 C   0  0  0  0  0  0  0  0  0  0  0  0
   -2.1868    0.4323    0.0000 C   0  0  0  0  0  0  0  0  0  0  0  0
   -3.4543   -0.1524    0.0000 C   0  0  0  0  0  0  0  0  0  0  0  0
   -7.7952    2.8897   -0.0000 H   0  0  0  0  0  0  0  0  0  0  0  0
   -5.5615    3.9313    0.0000 H   0  0  0  0  0  0  0  0  0  0  0  0
   -6.0137   -1.0102    0.0000 H   0  0  0  0  0  0  0  0  0  0  0  0
   -8.0212    0.4195    0.0000 H   0  0  0  0  0  0  0  0  0  0  0  0
   -3.0812    3.7043    0.0000 H   0  0  0  0  0  0  0  0  0  0  0  0
   -1.0736    2.2747    0.0000 H   0  0  0  0  0  0  0  0  0  0  0  0
   -1.2997   -0.1955    0.0000 H   0  0  0  0  0  0  0  0  0  0  0  0
   -3.5333   -1.2371    0.0000 H   0  0  0  0  0  0  0  0  0  0  0  0
 10 18  1  0  0  0  0
 10  9  2  0  0  0  0
 10  4  1  0  0  0  0
 17  9  1  0  0  0  0
 16  8  1  0  0  0  0
 15  7  1  0  0  0  0
 14  6  1  0  0  0  0
 13  5  1  0  0  0  0
 12  2  1  0  0  0  0
 11  1  1  0  0  0  0
  1  6  1  0  0  0  0
  1  2  2  0  0  0  0
  9  8  1  0  0  0  0
  8  7  2  0  0  0  0
  7  3  1  0  0  0  0
  6  5  2  0  0  0  0
  5  4  1  0  0  0  0
  4  3  2  0  0  0  0
  3  2  1  0  0  0  0
M  END
$$$$
